
*****
***** Welcome to the Xyce(TM) Parallel Electronic Simulator
*****
***** This is version Xyce DEVELOPMENT-202601110338-(Release-7.10.0-127-gf3af055e-dirty)-opensource
***** Date: Mon Feb 16 02:28:55 EST 2026


***** Executing netlist tb.spice

***** Reading and parsing netlist...
Netlist warning in file
 /Users/jianxunzhu/Documents/GitHub/osic-suite/ASDL/examples/pdks/gf180mcu/xyce/sm141064.xyce
 at or near line 18
 MODEL_BINNING:  duplicate PARSER parameter.  Using the first value found = true
 
Netlist warning in file
 /Users/jianxunzhu/Documents/GitHub/osic-suite/ASDL/examples/pdks/gf180mcu/xyce/sm141064.xyce
 at or near line 18
 MODEL_BINNING:  duplicate PARSER parameter.  Using the first value found = true
 
Netlist warning in file
 /Users/jianxunzhu/Documents/GitHub/osic-suite/ASDL/examples/pdks/gf180mcu/xyce/sm141064.xyce
 at or near line 18
 MODEL_BINNING:  duplicate PARSER parameter.  Using the first value found = true
 
Netlist warning in file
 /Users/jianxunzhu/Documents/GitHub/osic-suite/ASDL/examples/pdks/gf180mcu/xyce/sm141064.xyce
 at or near line 18
 MODEL_BINNING:  duplicate PARSER parameter.  Using the first value found = true
 
Netlist warning in file
 /Users/jianxunzhu/Documents/GitHub/osic-suite/ASDL/examples/pdks/gf180mcu/xyce/sm141064.xyce
 at or near line 18
 MODEL_BINNING:  duplicate PARSER parameter.  Using the first value found = true
 
Netlist warning in file
 /Users/jianxunzhu/Documents/GitHub/osic-suite/ASDL/examples/pdks/gf180mcu/xyce/sm141064.xyce
 at or near line 18
 MODEL_BINNING:  duplicate PARSER parameter.  Using the first value found = true
 
Netlist warning in file
 /Users/jianxunzhu/Documents/GitHub/osic-suite/ASDL/examples/pdks/gf180mcu/xyce/sm141064.xyce
 at or near line 18
 MODEL_BINNING:  duplicate PARSER parameter.  Using the first value found = true
 
Netlist warning in file
 /Users/jianxunzhu/Documents/GitHub/osic-suite/ASDL/examples/pdks/gf180mcu/xyce/sm141064.xyce
 at or near line 4701
 Device model PFET_03V3.13: Given pbswgd is less than 0.1. Pbswgd is set to
 0.1
Netlist warning in file
 /Users/jianxunzhu/Documents/GitHub/osic-suite/ASDL/examples/pdks/gf180mcu/xyce/sm141064.xyce
 at or near line 1116
 Device model NFET_03V3.13: Given pbswgd is less than 0.1. Pbswgd is set to
 0.1
***** Setting up topology...

***** Device Count Summary ...
       I level 1 (Independent Current Source)  1
       M level 14 (BSIM4)                      6
       V level 1 (Independent Voltage Source)  3
       -----------------------------------------
       Total Devices                          10
***** Setting up matrix structure...
***** Number of Unknowns = 22
***** Initializing...


***** Solution Summary *****
	Number Successful Steps Taken:		251
	Number Failed Steps Attempted:		0
	Number Jacobians Evaluated:		608
	Number Linear Solves:			608
	Number Failed Linear Solves:		0
	Number Residual Evaluations:		860
	Number Nonlinear Convergence Failures:	0
	Total Residual Load Time:		0.00563669 seconds
	Total Jacobian Load Time:		0.000715256 seconds
	Total Linear Solution Time:		0.00361991 seconds


***** Total Simulation Solvers Run Time: 0.015506 seconds
***** Total Elapsed Run Time:            0.1341 seconds
*****
***** End of Xyce(TM) Simulation
*****

Timing summary of 1 processor
                 Stats                   Count       CPU Time              Wall Time
---------------------------------------- ----- --------------------- ---------------------
Xyce                                         1        0.111 (100.0%)        0.137 (100.0%)
  Analysis                                   1        0.009 ( 7.72%)        0.015 (11.31%)
    DC Sweep                                 1        0.009 ( 7.72%)        0.015 (11.31%)
      Solve                                251        0.008 ( 7.19%)        0.014 ( 9.97%)
        Residual                           860        0.002 ( 2.00%)        0.006 ( 4.27%)
        Jacobian                           608        0.001 ( 0.57%)        0.001 ( 0.62%)
        Linear Solve                       608        0.003 ( 3.12%)        0.004 ( 2.75%)
      Successful Step                      251        0.000 ( 0.30%)        0.001 ( 0.83%)
  Netlist Import                             1        0.101 (91.41%)        0.112 (82.17%)
    Parse Context                            1        0.076 (68.56%)        0.080 (58.73%)
    Distribute Devices                       1        0.025 (22.46%)        0.026 (18.96%)
    Verify Devices                           1        0.000 (<0.01%)        0.000 ( 0.10%)
    Instantiate                              1        0.000 ( 0.14%)        0.001 ( 0.38%)
  Late Initialization                        1        0.000 ( 0.20%)        0.004 ( 2.68%)
    Global Indices                           1        0.000 ( 0.03%)        0.000 ( 0.24%)
  Setup Matrix Structure                     1        0.000 ( 0.04%)        0.002 ( 1.57%)

